
*DSSAT Cropping System Model Ver. 4.0.2.000               Oct 26, 2018; 11:06:02

*RUN   0        :C:\RZWQM2\PROJECTS\ALFALFA\                                                     
 MODEL          : ALFRM040 - Alfalfa/Lucerne 
 EXPERIMENT     : EXPDSSAT AL    RZWQM2-NOT SPECIFIED                           
 TREATMENT  1   :C:\RZWQM2\PROJECTS\ALFALFA\                                                     


*DSSAT Cropping System Model Ver. 4.0.2.000               Oct 26, 2018; 11:06:02

*RUN 819        :C:\RZWQM2\PROJECTS\ALFALFA\                                                     
 MODEL          : ALFRM040 - Alfalfa/Lucerne 
 EXPERIMENT     : EXPDSSAT AL    RZWQM2-NOT SPECIFIED                           
 TREATMENT  1   :C:\RZWQM2\PROJECTS\ALFALFA\                                                     


*DSSAT Cropping System Model Ver. 4.0.2.000               Oct 26, 2018; 11:06:02

*RUN 819        :C:\RZWQM2\PROJECTS\ALFALFA\                                                     
 MODEL          : ALFRM040 - Alfalfa/Lucerne 
 EXPERIMENT     : EXPDSSAT AL    RZWQM2-NOT SPECIFIED                           
 TREATMENT  1   :C:\RZWQM2\PROJECTS\ALFALFA\                                                     


*DSSAT Cropping System Model Ver. 4.0.2.000               Oct 26, 2018; 11:06:02

*RUN 819        :C:\RZWQM2\PROJECTS\ALFALFA\                                                     
 MODEL          : ALFRM040 - Alfalfa/Lucerne 
 EXPERIMENT     : EXPDSSAT AL    RZWQM2-NOT SPECIFIED                           
 TREATMENT  1   :C:\RZWQM2\PROJECTS\ALFALFA\                                                     


*DSSAT Cropping System Model Ver. 4.0.2.000               Oct 26, 2018; 11:06:02

*RUN 819        :C:\RZWQM2\PROJECTS\ALFALFA\                                                     
 MODEL          : ALFRM040 - Alfalfa/Lucerne 
 EXPERIMENT     : EXPDSSAT AL    RZWQM2-NOT SPECIFIED                           
 TREATMENT  1   :C:\RZWQM2\PROJECTS\ALFALFA\                                                     


*DSSAT Cropping System Model Ver. 4.0.2.000               Oct 26, 2018; 11:06:02

*RUN 819        :C:\RZWQM2\PROJECTS\ALFALFA\                                                     
 MODEL          : ALFRM040 - Alfalfa/Lucerne 
 EXPERIMENT     : EXPDSSAT AL    RZWQM2-NOT SPECIFIED                           
 TREATMENT  1   :C:\RZWQM2\PROJECTS\ALFALFA\                                                     

